<?xml version="1.0" encoding="UTF-8"?>

<!-- generated on mar 20 set 2022, 17:00:52 by Eclipse SUMO netedit Version 1.4.0
<configuration xmlns:xsi="http://www.w3.org/2001/XMLSchema-instance" xsi:noNamespaceSchemaLocation="http://sumo.dlr.de/xsd/netconvertConfiguration.xsd">

    <input>
        <sumo-net-file value="rettilineo.net.xml"/>
    </input>

    <output>
        <output-file value="rettilineo.net.xml"/>
    </output>

    <processing>
        <geometry.min-radius.fix.railways value="false"/>
        <geometry.max-grade.fix value="false"/>
        <offset.disable-normalization value="true"/>
        <lefthand value="false"/>
    </processing>

    <junctions>
        <no-internal-links value="true"/>
        <no-turnarounds value="true"/>
        <junctions.corner-detail value="5"/>
        <junctions.limit-turn-speed value="5.5"/>
        <rectangular-lane-cut value="false"/>
    </junctions>

    <pedestrian>
        <walkingareas value="false"/>
    </pedestrian>

    <visualisation>
        <registry-viewport value="true"/>
    </visualisation>

    <report>
        <aggregate-warnings value="5"/>
    </report>

</configuration>
-->

<net version="1.3" junctionCornerDetail="5" limitTurnSpeed="5.50" xmlns:xsi="http://www.w3.org/2001/XMLSchema-instance" xsi:noNamespaceSchemaLocation="http://sumo.dlr.de/xsd/net_file.xsd">

    <location netOffset="0.00,0.00" convBoundary="0.00,0.00,10000.00,0.00" origBoundary="-10000000000.00,-10000000000.00,10000000000.00,10000000000.00" projParameter="!"/>

    <edge id="gneE3" from="gneJ3" to="gneJ4" priority="7" length="10000.00">
        <lane id="gneE3_0" index="0" speed="100.00" length="10000.00" shape="0.00,-8.00 10000.00,-8.00"/>
        <lane id="gneE3_1" index="1" speed="100.00" length="10000.00" shape="0.00,-4.80 10000.00,-4.80"/>
        <lane id="gneE3_2" index="2" speed="100.00" length="10000.00" shape="0.00,-1.60 10000.00,-1.60"/>
    </edge>

    <junction id="gneJ3" type="dead_end" x="0.00" y="0.00" incLanes="" intLanes="" shape="0.00,0.00 0.00,-9.60"/>
    <junction id="gneJ4" type="dead_end" x="10000.00" y="0.00" incLanes="gneE3_0 gneE3_1 gneE3_2" intLanes="" shape="10000.00,-9.60 10000.00,0.00"/>

</net>
