<net xmlns:xsi="http://www.w3.org/2001/XMLSchema-instance" junctionCornerDetail="5" limitTurnSpeed="5.500000" version="1.3" xsi:noNamespaceSchemaLocation="http://sumo.dlr.de/xsd/net_file.xsd">

    <location convBoundary="0.000000,0.000000,200.000000,200.000000" netOffset="100.000000,100.000000" origBoundary="-100.000000,-100.000000,100.000000,100.000000" projParameter="!" />

    <edge function="internal" id=":node1_0">
        <lane id=":node1_0_0" index="0" length="0.100000" shape="48.868629,151.131371 48.868629,151.131371" speed="13.900000" />
    </edge>
    <edge function="internal" id=":node2_0">
        <lane id=":node2_0_0" index="0" length="3.000000" shape="149.010051,46.747309 151.131371,48.868629" speed="13.900000" />
    </edge>

    <edge from="node1" id="edg1" length="309.016994" priority="-1" shape="50.000000,150.000000 0.000000,100.000000 100.000000,0.000000 150.000000,50.000000" to="node2">
        <lane id="edg1_0" index="0" length="304.072722465" shape="48.868629,151.131371 -2.262742,100.000000 100.000000,-2.262742 149.010051,46.747309" speed="13.900000" />
    </edge>
    <edge from="node2" id="edg2" length="309.016994" priority="-1" shape="150.000000,50.000000 200.000000,100.000000 100.000000,200.000000 50.000000,150.000000" to="node1">
        <lane id="edg2_0" index="0" length="304.072722465" shape="151.131371,48.868629 202.262742,100.000000 100.000000,202.262742 48.868629,151.131371" speed="13.900000" />
    </edge>

    <junction id="node1" incLanes="edg2_0" intLanes=":node1_0_0" shape="47.737258,152.262742 50.000000,150.000000 47.737258,152.262742" type="priority" x="50.000000" y="150.000000">
        <request cont="0" foes="0" index="0" response="0" />
    </junction>
    <junction id="node2" incLanes="edg1_0" intLanes=":node2_0_0" shape="150.000000,50.000000 152.262742,47.737258 150.141421,45.615938 147.878680,47.878680" type="priority" x="150.000000" y="50.000000">
        <request cont="0" foes="0" index="0" response="0" />
    </junction>

    <connection dir="s" from="edg1" fromLane="0" state="M" to="edg2" toLane="0" via=":node2_0_0" />
    <connection dir="s" from="edg2" fromLane="0" state="M" to="edg1" toLane="0" via=":node1_0_0" />

    <connection dir="s" from=":node1_0" fromLane="0" state="M" to="edg1" toLane="0" />
    <connection dir="s" from=":node2_0" fromLane="0" state="M" to="edg2" toLane="0" />

</net>